Circuit: * C:\users\adampi\Desktop\Programming\Purdue-Milesotnes-Notes\Smart_Healthcare_Milestones\Week_2_Notes\inverting_op_amp.asc

Direct Newton iteration failed to find .op point.  (Use ".option noopiter" to skip.)
Starting Gmin stepping
Gmin = 10
Gmin = 1.07374
vernier = 0.5
vernier = 0.25
vernier = 0.125
vernier = 0.0625
vernier = 0.03125
Gmin = 1.0412
vernier = 0.015625
vernier = 0.0078125
Gmin = 1.0132
vernier = 0.00390625
vernier = 0.00195313
Gmin = 1.00827
vernier = 0.00260417
vernier = 0.00130208
Gmin = 1.00515
vernier = 0.000651042
vernier = 0.000868055
vernier = 0.000434028
Gmin = 1.00434
vernier = 0.000578703
vernier = 0.000434027
Gmin = 1.00339
Gmin = 0
Gmin stepping failed

Starting source stepping with srcstepmethod=0
Source Step = 3.0303%
Source Step = 33.3333%
Source Step = 63.6364%
Source Step = 93.9394%
Source stepping succeeded in finding the operating point.


Date: Tue Sep 13 19:33:51 2022
Total elapsed time: 0.451 seconds.

tnom = 27
temp = 27
method = modified trap
totiter = 6926
traniter = 2094
tranpoints = 1048
accept = 1048
rejected = 0
matrix size = 13
fillins = 10
solver = Normal
Matrix Compiler1: 796 bytes object code size  1.9/0.2/[0.2]
Matrix Compiler2: 1.24 KB object code size  1.7/0.6/[0.3]

