Circuit: * C:\users\adampi\Desktop\Programming\Purdue-Milesotnes-Notes\Smart_Healthcare_Milestones\Week_3_Notes\Week_2_Quiz.asc

Direct Newton iteration for .op point succeeded.

Date: Tue Sep 13 20:17:26 2022
Total elapsed time: 0.202 seconds.

tnom = 27
temp = 27
method = modified trap
totiter = 2128
traniter = 2096
tranpoints = 1049
accept = 1048
rejected = 1
matrix size = 19
fillins = 7
solver = Normal
Matrix Compiler1: 810 bytes object code size  0.4/0.3/[0.2]
Matrix Compiler2: off  [0.3]/0.5/0.3

